/batch
/config,noeldb,1     ! force off writing results to database
*get,_wallstrt,active,,time,wall
! ANSYS input file written by Workbench version 2022 R2
! File used for geometry attach: C:\Users\Thomas\Documents\Ansys_projekte\Klotz_for_aster\Klotz_for_aster_files\dp0\Geom\DM\Geom.scdoc
/title,Klotz_for_aster--Statisch-mechanisch (B5)
! ****** Begin Custom Load Command Snippet ******
/COM, ACT Extensions:
/COM,     LSDYNA, 2022.2
/COM,     5f463412-bd3e-484b-87e7-cbc0a665e474, wbex
/COM,/COM,     ANSYSMotion, 2022.2
/COM,     20180725-3f81-49eb-9f31-41364844c769, wbex
/COM,
! ****** End   Custom Load Command Snippet ******
*DIM,_wb_ProjectScratch_dir,string,248
_wb_ProjectScratch_dir(1) = 'C:\Users\Thomas\Documents\Ansys_projekte\Klotz_for_aster\Klotz_for_aster_files\dp0\SYS\MECH\'
*DIM,_wb_SolverFiles_dir,string,248
_wb_SolverFiles_dir(1) = 'C:\Users\Thomas\Documents\Ansys_projekte\Klotz_for_aster\Klotz_for_aster_files\dp0\SYS\MECH\'
*DIM,_wb_userfiles_dir,string,248
_wb_userfiles_dir(1) = 'C:\Users\Thomas\Documents\Ansys_projekte\Klotz_for_aster\Klotz_for_aster_files\user_files\'
/com,--- Data in consistent NMM units. See Solving Units in the help system for more information.
/units,MPA
/nopr
/wb,file,start              !  signify a WB generated input file
/prep7
! Turn off shape checking because checks already performed inside WB mesher.
! See help system for more information.
SHPP,OFF,,NOWARN
/nolist
etcon,set             ! allow ANSYS to choose best KEYOP's for 180x elements, resets any applicable keyopt to MAPDL defaults
/com,*********** Nodes for the whole assembly ***********
nblock,3,,2044
(1i9,3e20.9e3)
        1    -3.083333333E+00     9.000000000E-01    -2.083333333E+00
        2    -3.083333333E+00     1.800000000E+00    -2.083333333E+00
        3    -3.083333333E+00     2.700000000E+00    -2.083333333E+00
        4    -3.083333333E+00     3.600000000E+00    -2.083333333E+00
        5    -3.083333333E+00     4.500000000E+00    -2.083333333E+00
        6    -3.083333333E+00     5.400000000E+00    -2.083333333E+00
        7    -3.083333333E+00     6.300000000E+00    -2.083333333E+00
        8    -3.083333333E+00     7.200000000E+00    -2.083333333E+00
        9    -3.083333333E+00     8.100000000E+00    -2.083333333E+00
       10    -2.166666667E+00     9.000000000E-01    -2.083333333E+00
       11    -2.166666667E+00     1.800000000E+00    -2.083333333E+00
       12    -2.166666667E+00     2.700000000E+00    -2.083333333E+00
       13    -2.166666667E+00     3.600000000E+00    -2.083333333E+00
       14    -2.166666667E+00     4.500000000E+00    -2.083333333E+00
       15    -2.166666667E+00     5.400000000E+00    -2.083333333E+00
       16    -2.166666667E+00     6.300000000E+00    -2.083333333E+00
       17    -2.166666667E+00     7.200000000E+00    -2.083333333E+00
       18    -2.166666667E+00     8.100000000E+00    -2.083333333E+00
       19    -1.250000000E+00     9.000000000E-01    -2.083333333E+00
       20    -1.250000000E+00     1.800000000E+00    -2.083333333E+00
! ... 1840 like lines cut
/wb,elem,start            !  set before creation of elements
/com,*********** Elements for Body 1 "Geom\Volumenk_rper" ***********
et,1,185
eblock,19,solid,,1440
(19i9)
        1        1        1        1        0        0        0        0        8        0        1        1     1718     1748     1750     1210     1739     1749     1849
        1        1        1        1        0        0        0        0        8        0        2        1     1750     1748     1718        2     1761     1747     1707
        1        1        1        1        0        0        0        0        8        0        3        2     1761     1747     1707        3     1772     1746     1696
        1        1        1        1        0        0        0        0        8        0        4        3     1772     1746     1696        4     1783     1745     1685
        1        1        1        1        0        0        0        0        8        0        5        4     1783     1745     1685        5     1794     1744     1674
        1        1        1        1        0        0        0        0        8        0        6        5     1794     1744     1674        6     1805     1743     1663
        1        1        1        1        0        0        0        0        8        0        7        6     1805     1743     1663        7     1816     1742     1652
        1        1        1        1        0        0        0        0        8        0        8        7     1816     1742     1652        8     1827     1741     1641
        1        1        1        1        0        0        0        0        8        0        9        8     1827     1741     1641        9     1838     1740     1630
        1        1        1        1        0        0        0        0        8        0       10        9     1838     1740     1630     1211     1342     1343     1344
        1        1        1        1        0        0        0        0        8        0       11        1      100     1719     1718     1210     1199     1738     1739
        1        1        1        1        0        0        0        0        8        0       12        1     1718     1719      100        2     1707     1708      101
        1        1        1        1        0        0        0        0        8        0       13        2     1707     1708      101        3     1696     1697      102
        1        1        1        1        0        0        0        0        8        0       14        3     1696     1697      102        4     1685     1686      103
        1        1        1        1        0        0        0        0        8        0       15        4     1685     1686      103        5     1674     1675      104
        1        1        1        1        0        0        0        0        8        0       16        5     1674     1675      104        6     1663     1664      105
        1        1        1        1        0        0        0        0        8        0       17        6     1663     1664      105        7     1652     1653      106
        1        1        1        1        0        0        0        0        8        0       18        7     1652     1653      106        8     1641     1642      107
        1        1        1        1        0        0        0        0        8        0       19        8     1641     1642      107        9     1630     1631      108
        1        1        1        1        0        0        0        0        8        0       20        9     1630     1631      108     1211     1344     1345     1222
! ... 1421 like lines cut
!Material Id = {61FF4AE5-CFB7-4175-9F79-CC28D49B0071}
/wb,elem,end               !  done creating elements
/com,*********** Send User Defined Coordinate System(s) ***********
csys,0
toffst,273.15,  ! Temperature offset from absolute zero
/com,*********** Set Reference Temperature ***********
tref,22.
/wb,mat,start              !  starting to send materials
/com,*********** Send Materials ***********
Temperature = 'TEMP' ! Temperature
MP,DENS,1,7.85e-09,	! tonne mm^-3
MP,ALPX,1,1.2e-05,	! C^-1
MP,C,1,434000000,	! mm^2 s^-2 C^-1
MP,KXX,1,60.5,	! tonne mm s^-3 C^-1
MP,RSVX,1,0.00017,	! ohm mm
MP,EX,1,200000,	! tonne s^-2 mm^-1
MP,NUXY,1,0.3,
MP,MURX,1,10000,
MP,UVID,1,1b96c9c2-4a4b-41c8-b0a8-fa754b09d44b
MP,UMID,1,59002a79-71c2-428e-906b-55d7dbee100e

/wb,mat,end                !  done sending materials
!************************* Model Summary ********************
!Geom\Volumenk_rper,	Baustahl,	matid,	1
!************************* End Model Summary ********************
! get the diagonal of the bounding box. Needed later for other things
*get,_xmin,node,,mnloc,x
*get,_ymin,node,,mnloc,y
*get,_zmin,node,,mnloc,z
*get,_xmax,node,,mxloc,x
*get,_ymax,node,,mxloc,y
*get,_zmax,node,,mxloc,z
_ASMDIAG=(_xmax-_xmin)*(_xmax-_xmin)+(_ymax-_ymin)*(_ymax-_ymin)+(_zmax-_zmin)*(_zmax-_zmin)
_ASMDIAG=SQRT(_ASMDIAG)
/wb,contact,start          !  starting to send contact
/wb,contact,end            !  done creating contacts
/com,*********** Send Named Selection as Node Component ***********
CMBLOCK,FLAECHE_777,NODE,      143
(8i10)
      1355      1356      1357      1358      1359      1360      1361      1362
      1363      1364      1365      1366      1367      1500      1501      1502
      1503      1504      1505      1506      1507      1508      1509      1510
      1511      1512      1513      1514      1515      1516      1517      1518
      1519      1520      1521      1522      1523      1524      1525      1526
      1527      1528      1529      1530      1531      1532      1533      1534
      1535      1536      1537      1538      1539      1540      1541      1542
      1543      1544      1545      1546      1547      1548      1549      1550
      1551      1552      1553      1554      1555      1556      1557      1558
      1559      1560      1561      1562      1563      1564      1565      1566
      1567      1568      1569      1570      1571      1572      1573      1574
      1575      1576      1577      1578      1579      1580      1581      1582
      1583      1584      1585      1586      1587      1588      1589      1590
      1591      1592      1593      1594      1595      1596      1597      1598
      1599      1600      1601      1602      1603      1604      1605      1606
      1607      1608      1609      1610      1611      1612      1613      1614
      1615      1616      1617      1618      1619      1620      1621      1622
      1623      1624      1625      1626      1627      1628      1629
/golist
/wb,load,start             !  starting to send loads
/com,******* Constant Zero Displacement X *******
CMBLOCK,_DISPZEROUX,NODE,      143
(8i10)
      1355      1356      1357      1358      1359      1360      1361      1362
      1363      1364      1365      1366      1367      1500      1501      1502
      1503      1504      1505      1506      1507      1508      1509      1510
      1511      1512      1513      1514      1515      1516      1517      1518
      1519      1520      1521      1522      1523      1524      1525      1526
      1527      1528      1529      1530      1531      1532      1533      1534
      1535      1536      1537      1538      1539      1540      1541      1542
      1543      1544      1545      1546      1547      1548      1549      1550
      1551      1552      1553      1554      1555      1556      1557      1558
      1559      1560      1561      1562      1563      1564      1565      1566
      1567      1568      1569      1570      1571      1572      1573      1574
      1575      1576      1577      1578      1579      1580      1581      1582
      1583      1584      1585      1586      1587      1588      1589      1590
      1591      1592      1593      1594      1595      1596      1597      1598
      1599      1600      1601      1602      1603      1604      1605      1606
      1607      1608      1609      1610      1611      1612      1613      1614
      1615      1616      1617      1618      1619      1620      1621      1622
      1623      1624      1625      1626      1627      1628      1629
cmsel,s,_DISPZEROUX
d,all,ux,0
nsel,all
/com,******* Constant Zero Displacement Y *******
CMBLOCK,_DISPZEROUY,NODE,      143
(8i10)
      1355      1356      1357      1358      1359      1360      1361      1362
      1363      1364      1365      1366      1367      1500      1501      1502
      1503      1504      1505      1506      1507      1508      1509      1510
      1511      1512      1513      1514      1515      1516      1517      1518
      1519      1520      1521      1522      1523      1524      1525      1526
      1527      1528      1529      1530      1531      1532      1533      1534
      1535      1536      1537      1538      1539      1540      1541      1542
      1543      1544      1545      1546      1547      1548      1549      1550
      1551      1552      1553      1554      1555      1556      1557      1558
      1559      1560      1561      1562      1563      1564      1565      1566
      1567      1568      1569      1570      1571      1572      1573      1574
      1575      1576      1577      1578      1579      1580      1581      1582
      1583      1584      1585      1586      1587      1588      1589      1590
      1591      1592      1593      1594      1595      1596      1597      1598
      1599      1600      1601      1602      1603      1604      1605      1606
      1607      1608      1609      1610      1611      1612      1613      1614
      1615      1616      1617      1618      1619      1620      1621      1622
      1623      1624      1625      1626      1627      1628      1629
cmsel,s,_DISPZEROUY
d,all,uy,0
nsel,all
/com,******* Constant Zero Displacement Z *******
CMBLOCK,_DISPZEROUZ,NODE,      143
(8i10)
      1355      1356      1357      1358      1359      1360      1361      1362
      1363      1364      1365      1366      1367      1500      1501      1502
      1503      1504      1505      1506      1507      1508      1509      1510
      1511      1512      1513      1514      1515      1516      1517      1518
      1519      1520      1521      1522      1523      1524      1525      1526
      1527      1528      1529      1530      1531      1532      1533      1534
      1535      1536      1537      1538      1539      1540      1541      1542
      1543      1544      1545      1546      1547      1548      1549      1550
      1551      1552      1553      1554      1555      1556      1557      1558
      1559      1560      1561      1562      1563      1564      1565      1566
      1567      1568      1569      1570      1571      1572      1573      1574
      1575      1576      1577      1578      1579      1580      1581      1582
      1583      1584      1585      1586      1587      1588      1589      1590
      1591      1592      1593      1594      1595      1596      1597      1598
      1599      1600      1601      1602      1603      1604      1605      1606
      1607      1608      1609      1610      1611      1612      1613      1614
      1615      1616      1617      1618      1619      1620      1621      1622
      1623      1624      1625      1626      1627      1628      1629
cmsel,s,_DISPZEROUZ
d,all,uz,0
nsel,all
/com,*********** Define Pressure Using Surface Effect Elements "Druck" ***********
et,2,154
eblock,10,,,120
(15i9)
     2209        2        2        2        0     1500     1380     1368     1367
     2210        2        2        2        0     1501     1391     1380     1500
     2211        2        2        2        0     1502     1402     1391     1501
     2212        2        2        2        0     1503     1413     1402     1502
     2213        2        2        2        0     1504     1424     1413     1503
     2214        2        2        2        0     1505     1435     1424     1504
     2215        2        2        2        0     1506     1446     1435     1505
     2216        2        2        2        0     1507     1457     1446     1506
     2217        2        2        2        0     1508     1468     1457     1507
     2218        2        2        2        0     1509     1489     1468     1508
     2219        2        2        2        0     1380     1381     1369     1368
     2220        2        2        2        0     1391     1392     1381     1380
     2221        2        2        2        0     1402     1403     1392     1391
     2222        2        2        2        0     1413     1414     1403     1402
     2223        2        2        2        0     1424     1425     1414     1413
     2224        2        2        2        0     1435     1436     1425     1424
     2225        2        2        2        0     1446     1447     1436     1435
     2226        2        2        2        0     1457     1458     1447     1446
     2227        2        2        2        0     1468     1469     1458     1457
     2228        2        2        2        0     1489     1488     1469     1468
! ... 101 like lines cut
esel,s,type,,2
keyop,2,7,0                ! Use deformed area for application of load
esel,all
esel,all
/gst,on,on
fini
*get,_numnode,node,0,count
*get,_numelem,elem,0,count
*get, _MAXELEMNUM, elem, 0, NUM, MAX
*get, _MAXNODENUM, node, 0, NUM, MAX
*get, _MAXELEMTYPE, etyp, 0, NUM, MAX
*get, _MAXREALCONST, rcon, 0, NUM, MAX
/go
/wb,load,end               !  done creating loads
/com,--- Number of total nodes = %_numnode%
/com,--- Number of contact elements = 120
/com,--- Number of spring elements = 0
/com,--- Number of bearing elements = 0
/com,--- Number of solid elements = 1440
/com,--- Number of condensed parts = 0
/com,--- Number of total elements = %_numelem%
*get,_wallbsol,active,,time,wall
/com,****************************************************************************
/com,*************************    SOLUTION       ********************************
/com,****************************************************************************
/solu
antype,0                   ! static analysis
_thickRatio=  1     ! Ratio of thick parts in the model
eqsl,pcg,1e-8,,,,,,1
cntr,print,1               ! print out contact info and also make no initial contact an error
dmpoption,emat,no             ! Don't combine emat file for DANSYS
dmpoption,esav,no             ! Don't combine esav file for DANSYS
nldiag,cont,iter           ! print out contact info each equilibrium iteration
rescontrol,,none                 ! Do not keep any restart files
/com,****************************************************
/com,******************* SOLVE FOR LS 1 OF 1 ****************
esel,s,type,,2
nsle
sf,all,pres,1.
nsel,all
esel,all
esel,all
/nopr
/gopr
nsub,1,1,1
time,1.
outres,erase
outres,all,none
outres,nsol,all,
outres,rsol,all
outres,eangl,all
outres,etmp,all
outres,veng,all
outres,strs,all,
outres,epel,all,
outres,eppl,all,
outres,cont,all,
! *********** WB SOLVE COMMAND ***********
! check interactive state
*get,ANSINTER_,active,,int
*if,ANSINTER_,ne,0,then
/eof
*endif
solve
/com *************** Write FE CONNECTORS ********* 
CEWRITE,file,ce,,INTE
/com,****************************************************
/com,*************** FINISHED SOLVE FOR LS 1 *************
*get,_wallasol,active,,time,wall
/nopr
*get,_numnode,node,0,count
*get,_numelem,elem,0,count
*get, _MAXELEMNUM, elem, 0, NUM, MAX
*get, _MAXNODENUM, node, 0, NUM, MAX,,,INTERNAL
*get, _MAXELEMTYPE, etyp, 0, NUM, MAX
*get, _MAXREALCONST, rcon, 0, NUM, MAX
*get,_NSOLTHREADS,active,0,ntfs
*get,_NSOLPROCESSES,active,0,npfs
/gopr
*get,_PCGITER,active,,solu,cgiter
/post1
xmlo,ENCODING,ISO-8859-1
xmlo,parm
/xml,parm,xml
fini
/gopr
*get,_walldone,active,,time,wall
_preptime=(_wallbsol-_wallstrt)*3600
_solvtime=(_wallasol-_wallbsol)*3600
_posttime=(_walldone-_wallasol)*3600
_totaltim=(_walldone-_wallstrt)*3600
*get,_dlbratio,active,0,solu,dlbr
*get,_combtime,active,0,solu,comb
*get,_ssmode,active,0,solu,ssmm
*get,_ndofs,active,0,solu,ndof
*get,_sol_end_time,active,0,set,time
*if,_sol_end_time,eq,1.000000,then
/fclean				!clean distributed files
*endif
/com,--- Total number of nodes = %_numnode%
/com,--- Total number of elements = %_numelem%
/com,--- Element load balance ratio = %_dlbratio%
/com,--- Time to combine distributed files = %_combtime%
/com,--- Sparse memory mode = %_ssmode%
/com,--- Number of DOF = %_ndofs%
/wb,file,end               ! done with WB generated input
