 TITRE
CODE_ASTER - 10.01.27 - VERSION DE DEVELOPPEMENT          - UBUNTU23         - L
 FINSF
 %
 COOR_3D
 N1        2.01000000000000E+02  5.00000000000000E+01  5.00000000000000E+01
 N2        2.01000000000000E+02  5.00000000000000E+01  0.00000000000000E+00
 N3        2.01000000000000E+02  5.00000000000000E+01  2.50000000000000E+01
 N4        2.01000000000000E+02  2.50000000000000E+01  5.00000000000000E+01
 N5        2.01000000000000E+02  0.00000000000000E+00  5.00000000000000E+01
 N6        2.01000000000000E+02  2.50000000000000E+01  0.00000000000000E+00
 N7        2.01000000000000E+02  2.50000000000000E+01  2.50000000000000E+01
 N8        2.01000000000000E+02  0.00000000000000E+00  2.50000000000000E+01
 N9        2.01000000000000E+02  0.00000000000000E+00  0.00000000000000E+00
 N10       1.51000000000000E+02  5.00000000000000E+01  5.00000000000000E+01
 N11       1.51000000000000E+02  5.00000000000000E+01  0.00000000000000E+00
 N12       1.51000000000000E+02  5.00000000000000E+01  2.50000000000000E+01
 N13       1.51000000000000E+02  2.50000000000000E+01  5.00000000000000E+01
 N14       1.51000000000000E+02  0.00000000000000E+00  5.00000000000000E+01
 N15       1.51000000000000E+02  2.50000000000000E+01  0.00000000000000E+00
 N16       1.51000000000000E+02  2.50000000000000E+01  2.50000000000000E+01
 N17       1.51000000000000E+02  0.00000000000000E+00  2.50000000000000E+01
 N18       1.51000000000000E+02  0.00000000000000E+00  0.00000000000000E+00
 N19       1.01000000000000E+02  5.00000000000000E+01  5.00000000000000E+01
 N20       1.01000000000000E+02  5.00000000000000E+01  0.00000000000000E+00
 N21       1.01000000000000E+02  5.00000000000000E+01  2.50000000000000E+01
 N22       1.01000000000000E+02  2.50000000000000E+01  5.00000000000000E+01
 N23       1.01000000000000E+02  0.00000000000000E+00  5.00000000000000E+01
 N24       1.01000000000000E+02  2.50000000000000E+01  0.00000000000000E+00
 N25       1.01000000000000E+02  2.50000000000000E+01  2.50000000000000E+01
 N26       1.01000000000000E+02  0.00000000000000E+00  2.50000000000000E+01
 N27       1.01000000000000E+02  0.00000000000000E+00  0.00000000000000E+00
 N28       5.10000000000000E+01  0.00000000000000E+00  5.00000000000000E+01
 N29       5.10000000000000E+01  5.00000000000000E+01  5.00000000000000E+01
 N30       5.10000000000000E+01  2.50000000000000E+01  5.00000000000000E+01
 N31       5.10000000000000E+01  5.00000000000000E+01  0.00000000000000E+00
 N32       5.10000000000000E+01  5.00000000000000E+01  2.50000000000000E+01
 N33       5.10000000000000E+01  2.50000000000000E+01  0.00000000000000E+00
 N34       5.10000000000000E+01  2.50000000000000E+01  2.50000000000000E+01
 N35       5.10000000000000E+01  0.00000000000000E+00  2.50000000000000E+01
 N36       5.10000000000000E+01  0.00000000000000E+00  0.00000000000000E+00
 N37       1.00000000000000E+00  0.00000000000000E+00  5.00000000000000E+01
 N38       0.00000000000000E+00  0.00000000000000E+00  5.00000000000000E+01
 N39       1.00000000000000E+00  0.00000000000000E+00  2.50000000000000E+01
 N40       1.00000000000000E+00  0.00000000000000E+00  0.00000000000000E+00
 N41       0.00000000000000E+00  0.00000000000000E+00  2.50000000000000E+01
 N42       0.00000000000000E+00  0.00000000000000E+00  0.00000000000000E+00
 N43       1.00000000000000E+00  2.50000000000000E+01  5.00000000000000E+01
 N44       1.00000000000000E+00  5.00000000000000E+01  5.00000000000000E+01
 N45       0.00000000000000E+00  2.50000000000000E+01  5.00000000000000E+01
 N46       0.00000000000000E+00  5.00000000000000E+01  5.00000000000000E+01
 N47       1.00000000000000E+00  2.50000000000000E+01  2.50000000000000E+01
 N48       1.00000000000000E+00  5.00000000000000E+01  2.50000000000000E+01
 N49       1.00000000000000E+00  5.00000000000000E+01  0.00000000000000E+00
 N50       1.00000000000000E+00  2.50000000000000E+01  0.00000000000000E+00
 N51       0.00000000000000E+00  2.50000000000000E+01  2.50000000000000E+01
 N52       0.00000000000000E+00  5.00000000000000E+01  0.00000000000000E+00
 N53       0.00000000000000E+00  2.50000000000000E+01  0.00000000000000E+00
 N54       0.00000000000000E+00  5.00000000000000E+01  2.50000000000000E+01
 FINSF
 %
 SEG2    
 M45      N9       N8      
 M46      N8       N5      
 M47      N5       N4      
 M48      N4       N1      
 M49      N1       N3      
 M50      N3       N2      
 M51      N2       N6      
 M52      N6       N9      
 M93      N37      N43     
 M94      N43      N44     
 M95      N44      N29     
 M96      N29      N19     
 M97      N19      N10     
 M98      N10      N1      
 M101     N5       N14     
 M102     N14      N23     
 M103     N23      N28     
 M104     N28      N37     
 M113     N40      N50     
 M114     N50      N49     
 M115     N49      N31     
 M116     N31      N20     
 M117     N20      N11     
 M118     N11      N2      
 M121     N9       N18     
 M122     N18      N27     
 M123     N27      N36     
 M124     N36      N40     
 M133     N49      N48     
 M134     N48      N44     
 M153     N40      N39     
 M154     N39      N37     
 M221     N42      N53     
 M222     N53      N52     
 M223     N52      N54     
 M224     N54      N46     
 M225     N46      N45     
 M226     N45      N38     
 M227     N38      N41     
 M228     N41      N42     
 FINSF
 %
 QUAD4   
 M25      N42      N53      N51      N41     
 M26      N53      N52      N54      N51     
 M27      N41      N51      N45      N38     
 M28      N51      N54      N46      N45     
 M29      N40      N39      N47      N50     
 M30      N50      N47      N48      N49     
 M31      N39      N37      N43      N47     
 M32      N47      N43      N44      N48     
 M33      N42      N53      N50      N40     
 M34      N53      N52      N49      N50     
 M35      N52      N54      N48      N49     
 M36      N54      N46      N44      N48     
 M37      N46      N45      N43      N44     
 M38      N45      N38      N37      N43     
 M39      N38      N41      N39      N37     
 M40      N41      N42      N40      N39     
 M41      N9       N8       N7       N6      
 M42      N8       N5       N4       N7      
 M43      N6       N7       N3       N2      
 M44      N7       N4       N1       N3      
 M53      N40      N39      N35      N36     
 M54      N39      N37      N28      N35     
 M55      N36      N35      N26      N27     
 M56      N35      N28      N23      N26     
 M57      N27      N26      N17      N18     
 M58      N26      N23      N14      N17     
 M59      N18      N17      N8       N9      
 M60      N17      N14      N5       N8      
 M61      N49      N48      N32      N31     
 M62      N48      N44      N29      N32     
 M63      N31      N32      N21      N20     
 M64      N32      N29      N19      N21     
 M65      N20      N21      N12      N11     
 M66      N21      N19      N10      N12     
 M67      N11      N12      N3       N2      
 M68      N12      N10      N1       N3      
 M69      N40      N50      N33      N36     
 M70      N50      N49      N31      N33     
 M71      N36      N33      N24      N27     
 M72      N33      N31      N20      N24     
 M73      N27      N24      N15      N18     
 M74      N24      N20      N11      N15     
 M75      N18      N15      N6       N9      
 M76      N15      N11      N2       N6      
 M77      N37      N43      N30      N28     
 M78      N43      N44      N29      N30     
 M79      N28      N30      N22      N23     
 M80      N30      N29      N19      N22     
 M81      N23      N22      N13      N14     
 M82      N22      N19      N10      N13     
 M83      N14      N13      N4       N5      
 M84      N13      N10      N1       N4      
 FINSF
 %
 HEXA8   
 M1       N40      N39      N47      N50      N36      N35      N34     
          N33     
 M2       N39      N37      N43      N47      N35      N28      N30     
          N34     
 M3       N50      N47      N48      N49      N33      N34      N32     
          N31     
 M4       N47      N43      N44      N48      N34      N30      N29     
          N32     
 M5       N36      N35      N34      N33      N27      N26      N25     
          N24     
 M6       N35      N28      N30      N34      N26      N23      N22     
          N25     
 M7       N33      N34      N32      N31      N24      N25      N21     
          N20     
 M8       N34      N30      N29      N32      N25      N22      N19     
          N21     
 M9       N27      N26      N25      N24      N18      N17      N16     
          N15     
 M10      N26      N23      N22      N25      N17      N14      N13     
          N16     
 M11      N24      N25      N21      N20      N15      N16      N12     
          N11     
 M12      N25      N22      N19      N21      N16      N13      N10     
          N12     
 M13      N18      N17      N16      N15      N9       N8       N7      
          N6      
 M14      N17      N14      N13      N16      N8       N5       N4      
          N7      
 M15      N15      N16      N12      N11      N6       N7       N3      
          N2      
 M16      N16      N13      N10      N12      N7       N4       N1      
          N3      
 M17      N42      N53      N51      N41      N40      N50      N47     
          N39     
 M18      N53      N52      N54      N51      N50      N49      N48     
          N47     
 M19      N41      N51      N45      N38      N39      N47      N43     
          N37     
 M20      N51      N54      N46      N45      N47      N48      N44     
          N43     
 FINSF
 %
 GROUP_NO
 P1                      
 N40     
 FINSF
 %
 GROUP_NO
 P3                      
 N49     
 FINSF
 %
 GROUP_NO
 P5                      
 N37     
 FINSF
 %
 GROUP_NO
 P6                      
 N42     
 FINSF
 %
 GROUP_NO
 P7                      
 N52     
 FINSF
 %
 GROUP_MA
 FOND                    
 M41      M42      M43      M44     
 FINSF
 %
 GROUP_MA
 IFLUSOL                 
 M53      M54      M55      M56      M57      M58      M59     
 M60      M61      M62      M63      M64      M65      M66     
 M67      M68      M69      M70      M71      M72      M73     
 M74      M75      M76      M77      M78      M79      M80     
 M81      M82      M83      M84     
 FINSF
 %
 GROUP_MA
 FLUSOL1                 
 M53      M54      M55      M56      M57      M58      M59     
 M60     
 FINSF
 %
 GROUP_MA
 FLUSOL2                 
 M61      M62      M63      M64      M65      M66      M67     
 M68     
 FINSF
 %
 GROUP_MA
 FLUSOL3                 
 M69      M70      M71      M72      M73      M74      M75     
 M76     
 FINSF
 %
 GROUP_MA
 FLUSOL4                 
 M77      M78      M79      M80      M81      M82      M83     
 M84     
 FINSF
 %
 GROUP_MA
 IPRES                   
 M29      M30      M31      M32     
 FINSF
 %
 GROUP_MA
 ISTR                    
 M25      M26      M27      M28     
 FINSF
 %
 GROUP_MA
 STRU                    
 M17      M18      M19      M20     
 FINSF
 %
 GROUP_MA
 VOLU                    
 M1       M2       M3       M4       M5       M6       M7      
 M8       M9       M10      M11      M12      M13      M14     
 M15      M16      M17      M18      M19      M20     
 FINSF
 %
 GROUP_MA
 FLUIDE                  
 M1       M2       M3       M4       M5       M6       M7      
 M8       M9       M10      M11      M12      M13      M14     
 M15      M16     
 FINSF
 %
 FIN
