/batch
/config,noeldb,1     ! force off writing results to database
*get,_wallstrt,active,,time,wall
! ANSYS input file written by Workbench version 2022 R2
! File used for geometry attach: C:\Users\Thomas\Documents\Ansys_projekte\Klotz_for_aster\Klotz_for_aster_files\dp0\Geom-1\DM\Geom-1.scdoc
/title,Klotz_for_aster--Statisch-mechanisch (F5)
! ****** Begin Custom Load Command Snippet ******
/COM, ACT Extensions:
/COM,     LSDYNA, 2022.2
/COM,     5f463412-bd3e-484b-87e7-cbc0a665e474, wbex
/COM,/COM,     ANSYSMotion, 2022.2
/COM,     20180725-3f81-49eb-9f31-41364844c769, wbex
/COM,
! ****** End   Custom Load Command Snippet ******
*DIM,_wb_ProjectScratch_dir,string,248
_wb_ProjectScratch_dir(1) = 'C:\Users\Thomas\Documents\Ansys_projekte\Klotz_for_aster\Klotz_for_aster_files\dp0\SYS-4\MECH\'
*DIM,_wb_SolverFiles_dir,string,248
_wb_SolverFiles_dir(1) = 'C:\Users\Thomas\Documents\Ansys_projekte\Klotz_for_aster\Klotz_for_aster_files\dp0\SYS-4\MECH\'
*DIM,_wb_userfiles_dir,string,248
_wb_userfiles_dir(1) = 'C:\Users\Thomas\Documents\Ansys_projekte\Klotz_for_aster\Klotz_for_aster_files\user_files\'
/com,--- Data in consistent NMM units. See Solving Units in the help system for more information.
/units,MPA
/nopr
/wb,file,start              !  signify a WB generated input file
/prep7
! Turn off shape checking because checks already performed inside WB mesher.
! See help system for more information.
SHPP,OFF,,NOWARN
/nolist
etcon,set             ! allow ANSYS to choose best KEYOP's for 180x elements, resets any applicable keyopt to MAPDL defaults
/com,*********** Nodes for the whole assembly ***********
nblock,3,,160
(1i9,3e20.9e3)
        1     1.200000000E+01     4.730000000E+00    -1.000000000E+01
        2     1.000000000E+01     4.730000000E+00    -1.000000000E+01
        3     1.000000000E+01     2.730000000E+00    -1.000000000E+01
        4     1.200000000E+01     2.730000000E+00    -1.000000000E+01
        5     1.000000000E+01     4.730000000E+00    -1.200000000E+01
        6     1.000000000E+01     2.730000000E+00    -1.200000000E+01
        7     1.200000000E+01     4.730000000E+00    -1.200000000E+01
        8     1.200000000E+01     2.730000000E+00    -1.200000000E+01
        9     1.100000000E+01     3.730000000E+00    -1.100000000E+01
       10     1.100000000E+01     4.730000000E+00    -1.000000000E+01
       11     1.100000000E+01     3.730000000E+00    -1.000000000E+01
       12     1.200000000E+01     3.730000000E+00    -1.000000000E+01
       13     1.200000000E+01     4.730000000E+00    -1.100000000E+01
       14     1.150000000E+01     4.230000000E+00    -1.050000000E+01
       15     1.000000000E+01     3.730000000E+00    -1.000000000E+01
       16     1.000000000E+01     4.730000000E+00    -1.100000000E+01
       17     1.100000000E+01     4.730000000E+00    -1.100000000E+01
       18     1.050000000E+01     4.230000000E+00    -1.050000000E+01
       19     1.100000000E+01     2.730000000E+00    -1.000000000E+01
       20     1.000000000E+01     3.730000000E+00    -1.100000000E+01
! ... 127 like lines cut
/wb,elem,start            !  set before creation of elements
/com,*********** Elements for Body 1 "Platte\Volumenk_rper" ***********
et,1,187
eblock,19,solid,,42
(19i9)
        1        1        1        1        0        0        0        0       10        0       13       36       41       55       40       62       85       65       61
       81       83
        1        1        1        1        0        0        0        0       10        0       14       36       40       55       51       61       83       65       64
       82      125
        1        1        1        1        0        0        0        0       10        0       15       36       55       41       38       65       85       62       60
       74       73
        1        1        1        1        0        0        0        0       10        0       16       36       51       55       59       64      125       65       66
      127      141
        1        1        1        1        0        0        0        0       10        0       17       36       59       55       38       66      141       65       60
       76       74
        1        1        1        1        0        0        0        0       10        0       18       38       55       41       56       74       85       73       75
      140       86
        1        1        1        1        0        0        0        0       10        0       19       36       50       51       59       63      121       64       66
      123      127
        1        1        1        1        0        0        0        0       10        0       20       51       53       55       59      124      133      125      127
      136      141
        1        1        1        1        0        0        0        0       10        0       21       38       55       56       59       74      140       75       76
      141      144
        1        1        1        1        0        0        0        0       10        0       22       41       52       56       55       84      131       86       85
      130      140
! ... 65 like lines cut
!Material Id = {5F57D6CD-9CBE-42EA-A62E-E7174B44EAE7}
/com,*********** Elements for Body 2 "Klotz\Volumenk_rper" ***********
et,2,187
eblock,19,solid,,12
(19i9)
        2        2        2        2        0        0        0        0       10        0        1        1        9        4        3       14       26       12       11
       23       19
        2        2        2        2        0        0        0        0       10        0        2        1        7        4        9       13       24       12       14
       34       26
        2        2        2        2        0        0        0        0       10        0        3        1        2        9        3       10       18       14       11
       15       23
        2        2        2        2        0        0        0        0       10        0        4        1        2        7        9       10       17       13       14
       18       34
        2        2        2        2        0        0        0        0       10        0        5        3        4        8        9       19       25       22       23
       26       35
        2        2        2        2        0        0        0        0       10        0        6        4        8        9        7       25       35       26       24
       33       34
        2        2        2        2        0        0        0        0       10        0        7        2        5        9        3       16       29       18       15
       20       23
        2        2        2        2        0        0        0        0       10        0        8        2        9        5        7       18       29       16       17
       34       28
        2        2        2        2        0        0        0        0       10        0        9        3        8        6        9       22       31       21       23
       35       32
        2        2        2        2        0        0        0        0       10        0       10        6        9        8        7       32       35       31       30
       34       33
! ... 5 like lines cut
!Material Id = {3D79BC6B-3301-4611-8FE1-17863380D126}
/wb,elem,end               !  done creating elements
/com,*********** Send User Defined Coordinate System(s) ***********
csys,0
toffst,273.15,  ! Temperature offset from absolute zero
/com,*********** Set Reference Temperature ***********
tref,22.
/wb,mat,start              !  starting to send materials
/com,*********** Send Materials ***********
Temperature = 'TEMP' ! Temperature
MP,DENS,1,7.85e-09,	! tonne mm^-3
MP,ALPX,1,1.2e-05,	! C^-1
MP,C,1,434000000,	! mm^2 s^-2 C^-1
MP,KXX,1,60.5,	! tonne mm s^-3 C^-1
MP,RSVX,1,0.00017,	! ohm mm
MP,EX,1,200000,	! tonne s^-2 mm^-1
MP,NUXY,1,0.3,
MP,MURX,1,10000,
MP,UVID,1,df079694-9000-4114-938a-7fb35c826ac2
MP,UMID,1,59002a79-71c2-428e-906b-55d7dbee100e

Temperature = 'TEMP' ! Temperature
MP,DENS,2,7.85e-09,	! tonne mm^-3
MP,ALPX,2,1.2e-05,	! C^-1
MP,C,2,434000000,	! mm^2 s^-2 C^-1
MP,KXX,2,60.5,	! tonne mm s^-3 C^-1
MP,RSVX,2,0.00017,	! ohm mm
MP,EX,2,200000,	! tonne s^-2 mm^-1
MP,NUXY,2,0.3,
MP,MURX,2,10000,
MP,UVID,2,df079694-9000-4114-938a-7fb35c826ac2
MP,UMID,2,59002a79-71c2-428e-906b-55d7dbee100e

/wb,mat,end                !  done sending materials
!************************* Model Summary ********************
!Platte\Volumenk_rper,	Baustahl,	matid,	1
!Klotz\Volumenk_rper,	Baustahl,	matid,	2
!************************* End Model Summary ********************
! get the diagonal of the bounding box. Needed later for other things
*get,_xmin,node,,mnloc,x
*get,_ymin,node,,mnloc,y
*get,_zmin,node,,mnloc,z
*get,_xmax,node,,mxloc,x
*get,_ymax,node,,mxloc,y
*get,_zmax,node,,mxloc,z
_ASMDIAG=(_xmax-_xmin)*(_xmax-_xmin)+(_ymax-_ymin)*(_ymax-_ymin)+(_zmax-_zmin)*(_zmax-_zmin)
_ASMDIAG=SQRT(_ASMDIAG)
/wb,contact,start          !  starting to send contact
/com,*********** Create Contact "Reibungsbehaftet - Platte\Volumenkörper bis Klotz\Volumenkörper" ***********
/com,            Real Constant Set For Above Contact Is 4 & 3 
*set,tid,4
*set,cid,3
r,tid
r,cid
et,tid,170
et,cid,174
eblock,10,,,6
(15i9)
      111        4        4        4        0       56       59       57       57      144      146       57      142
      112        4        4        4        0       56       57       58       58      142      145       58      143
      113        4        4        4        0       37       38       56       56       67       75       56       72
      114        4        4        4        0       37       56       43       43       72       96       43       70
      115        4        4        4        0       43       56       58       58       96      143       58       97
      116        4        4        4        0       38       59       56       56       76      144       56       75
-1
eblock,10,,,6
(15i9)
      117        3        3        3        0       56       59       57       57      144      146       57      142
      118        3        3        3        0       56       57       58       58      142      145       58      143
      119        3        3        3        0       37       38       56       56       67       75       56       72
      120        3        3        3        0       37       56       43       43       72       96       43       70
      121        3        3        3        0       43       56       58       58       96      143       58       97
      122        3        3        3        0       38       59       56       56       76      144       56       75
-1
eblock,10,,,2
(15i9)
      123        3        4        3        0        3        6        8        8       21       31        8       22
      124        3        4        3        0        3        8        4        4       22       25        4       19
-1
eblock,10,,,2
(15i9)
      125        4        3        4        0        3        6        8        8       21       31        8       22
      126        4        3        4        0        3        8        4        4       22       25        4       19
-1
keyo,cid,8,2               ! auto create asymmetric contact (from Program Controlled setting)
keyo,cid,10,0              ! adjust contact stiffness each NR iteration (from Program Controlled setting)
keyo,cid,12,0              ! standard contact
mp,mu,cid,0.2       ! unitless
keyo,cid,18,1              ! small sliding turned on by application
keyo,cid,2,0               ! augmented Lagrange (from Program Controlled setting)
keyo,cid,4,0               ! on Gauss point (from Program Controlled setting)
keyo,cid,9,0               ! use real geometry with stepped effects
keyo,cid,7,0               ! No Prediction
rmod,tid,3,1.       ! FKN
rmod,tid,5,0.       ! ICONT
rmod,tid,6,0.       ! PINB
rmod,tid,10,0.      ! CNOF
rmod,tid,12,0.      ! FKT
rmod,tid,36,29      ! WB DSID
rmod,cid,3,1.       ! FKN
rmod,cid,5,0.       ! ICONT
rmod,cid,6,0.       ! PINB
rmod,cid,10,0.      ! CNOF
rmod,cid,12,0.      ! FKT
rmod,cid,36,29      ! WB DSID
nsel,all
esel,all
/wb,contact,end            !  done creating contacts
/golist
/wb,load,start             !  starting to send loads
/com,*********** Fixed Supports ***********
CMBLOCK,_FIXEDSU,NODE,       37
(8i10)
        39        40        41        44        45        48        49        51
        52        53        54        55        77        79        80        81
        82        83        84        85        98       100       101       102
       103       116       117       118       119       120       124       125
       128       129       130       132       133
cmsel,s,_FIXEDSU
d,all,all
nsel,all
/com,*********** Define Pressure Using Surface Effect Elements "Druck" ***********
et,5,154
eblock,10,,,2
(15i9)
      127        5        5        5        0        2        7        5        5       17       28        5       16
      128        5        5        5        0        1        7        2        2       13       17        2       10
-1
esel,s,type,,5
keyop,5,7,0                ! Use deformed area for application of load
esel,all
esel,all
/gst,on,on
fini
*get,_numnode,node,0,count
*get,_numelem,elem,0,count
*get, _MAXELEMNUM, elem, 0, NUM, MAX
*get, _MAXNODENUM, node, 0, NUM, MAX
*get, _MAXELEMTYPE, etyp, 0, NUM, MAX
*get, _MAXREALCONST, rcon, 0, NUM, MAX
/go
/wb,load,end               !  done creating loads
/com,--- Number of total nodes = %_numnode%
/com,--- Number of contact elements = 18
/com,--- Number of spring elements = 0
/com,--- Number of bearing elements = 0
/com,--- Number of solid elements = 54
/com,--- Number of condensed parts = 0
/com,--- Number of total elements = %_numelem%
*get,_wallbsol,active,,time,wall
/com,****************************************************************************
/com,*************************    SOLUTION       ********************************
/com,****************************************************************************
/solu
antype,0                   ! static analysis
_thickRatio=  0     ! Ratio of thick parts in the model
eqsl,sparse,,,,,1
cntr,print,1               ! print out contact info and also make no initial contact an error
dmpoption,emat,no             ! Don't combine emat file for DANSYS
dmpoption,esav,no             ! Don't combine esav file for DANSYS
nldiag,cont,iter           ! print out contact info each equilibrium iteration
rescontrol,define,last,last,,dele	   ! Program Controlled
/com,****************************************************
/com,******************* SOLVE FOR LS 1 OF 1 ****************
esel,s,type,,5
nsle
sf,all,pres,1.
nsel,all
esel,all
esel,all
/nopr
/gopr
autots,on                  ! Workbench Program Controlled automatic time stepping
nsub,1,10,1                ! due to presence of general nonlinear
time,1.
outres,erase
outres,all,none
outres,nsol,all,
outres,rsol,all
outres,eangl,all
outres,etmp,all
outres,veng,all
outres,strs,all,
outres,epel,all,
outres,eppl,all,
outres,cont,all,
! *********** WB SOLVE COMMAND ***********
! check interactive state
*get,ANSINTER_,active,,int
*if,ANSINTER_,ne,0,then
/eof
*endif
solve
/com *************** Write FE CONNECTORS ********* 
CEWRITE,file,ce,,INTE
/com,****************************************************
/com,*************** FINISHED SOLVE FOR LS 1 *************
*get,_wallasol,active,,time,wall
/nopr
*get,_numnode,node,0,count
*get,_numelem,elem,0,count
*get, _MAXELEMNUM, elem, 0, NUM, MAX
*get, _MAXNODENUM, node, 0, NUM, MAX,,,INTERNAL
*get, _MAXELEMTYPE, etyp, 0, NUM, MAX
*get, _MAXREALCONST, rcon, 0, NUM, MAX
*get,_NSOLTHREADS,active,0,ntfs
*get,_NSOLPROCESSES,active,0,npfs
/gopr
/post1
xmlo,ENCODING,ISO-8859-1
xmlo,parm
/xml,parm,xml
fini
/gopr
*get,_walldone,active,,time,wall
_preptime=(_wallbsol-_wallstrt)*3600
_solvtime=(_wallasol-_wallbsol)*3600
_posttime=(_walldone-_wallasol)*3600
_totaltim=(_walldone-_wallstrt)*3600
*get,_dlbratio,active,0,solu,dlbr
*get,_combtime,active,0,solu,comb
*get,_ssmode,active,0,solu,ssmm
*get,_ndofs,active,0,solu,ndof
*get,_sol_end_time,active,0,set,time
*if,_sol_end_time,eq,1.000000,then
/fclean				!clean distributed files
*endif
/com,--- Total number of nodes = %_numnode%
/com,--- Total number of elements = %_numelem%
/com,--- Element load balance ratio = %_dlbratio%
/com,--- Time to combine distributed files = %_combtime%
/com,--- Sparse memory mode = %_ssmode%
/com,--- Number of DOF = %_ndofs%
/wb,file,end               ! done with WB generated input
