/batch
/config,noeldb,1     ! force off writing results to database
*get,_wallstrt,active,,time,wall
! ANSYS input file written by Workbench version 2022 R2
! File used for geometry attach: C:\Users\Thomas\Documents\Ansys_projekte\Klotz_for_aster\Klotz_for_aster_files\dp0\Geom\DM\Geom.scdoc
/title,Klotz_for_aster--Statisch-mechanisch (C5)
! ****** Begin Custom Load Command Snippet ******
/COM, ACT Extensions:
/COM,     LSDYNA, 2022.2
/COM,     5f463412-bd3e-484b-87e7-cbc0a665e474, wbex
/COM,/COM,     ANSYSMotion, 2022.2
/COM,     20180725-3f81-49eb-9f31-41364844c769, wbex
/COM,
! ****** End   Custom Load Command Snippet ******
*DIM,_wb_ProjectScratch_dir,string,248
_wb_ProjectScratch_dir(1) = 'C:\Users\Thomas\Documents\Ansys_projekte\Klotz_for_aster\Klotz_for_aster_files\dp0\SYS-1\MECH\'
*DIM,_wb_SolverFiles_dir,string,248
_wb_SolverFiles_dir(1) = 'C:\Users\Thomas\Documents\Ansys_projekte\Klotz_for_aster\Klotz_for_aster_files\dp0\SYS-1\MECH\'
*DIM,_wb_userfiles_dir,string,248
_wb_userfiles_dir(1) = 'C:\Users\Thomas\Documents\Ansys_projekte\Klotz_for_aster\Klotz_for_aster_files\user_files\'
/com,--- Data in consistent NMM units. See Solving Units in the help system for more information.
/units,MPA
/nopr
/wb,file,start              !  signify a WB generated input file
/prep7
! Turn off shape checking because checks already performed inside WB mesher.
! See help system for more information.
SHPP,OFF,,NOWARN
/nolist
etcon,set             ! allow ANSYS to choose best KEYOP's for 180x elements, resets any applicable keyopt to MAPDL defaults
/com,*********** Nodes for the whole assembly ***********
nblock,3,,7995
(1i9,3e20.9e3)
        1     7.000000000E+00     9.000000000E+00    -3.000000000E+00
        2     7.000000000E+00     9.000000000E+00     8.000000000E+00
        3     7.000000000E+00     9.000000000E+00    -2.500000000E+00
        4     7.000000000E+00     9.000000000E+00    -2.000000000E+00
        5     7.000000000E+00     9.000000000E+00    -1.500000000E+00
        6     7.000000000E+00     9.000000000E+00    -1.000000000E+00
        7     7.000000000E+00     9.000000000E+00    -5.000000000E-01
        8     7.000000000E+00     9.000000000E+00     8.673617380E-16
        9     7.000000000E+00     9.000000000E+00     5.000000000E-01
       10     7.000000000E+00     9.000000000E+00     1.000000000E+00
       11     7.000000000E+00     9.000000000E+00     1.500000000E+00
       12     7.000000000E+00     9.000000000E+00     2.000000000E+00
       13     7.000000000E+00     9.000000000E+00     2.500000000E+00
       14     7.000000000E+00     9.000000000E+00     3.000000000E+00
       15     7.000000000E+00     9.000000000E+00     3.500000000E+00
       16     7.000000000E+00     9.000000000E+00     4.000000000E+00
       17     7.000000000E+00     9.000000000E+00     4.500000000E+00
       18     7.000000000E+00     9.000000000E+00     5.000000000E+00
       19     7.000000000E+00     9.000000000E+00     5.500000000E+00
       20     7.000000000E+00     9.000000000E+00     6.000000000E+00
! ... 7250 like lines cut
/wb,elem,start            !  set before creation of elements
/com,*********** Elements for Body 1 "Geom\Volumenk_rper" ***********
et,1,187
eblock,19,solid,,3955
(19i9)
        1        1        1        1        0        0        0        0       10        0        1      741     1199      805     1009     5143     5467     5139     5142
     6575     5466
        1        1        1        1        0        0        0        0       10        0        2      741     1199      795      805     5143     5434     5138     5139
     5467     5431
        1        1        1        1        0        0        0        0       10        0        3      865     1199     1109     1188     5852     7102     5850     5851
     7269     7101
        1        1        1        1        0        0        0        0       10        0        4      844      865     1199     1109     5719     5852     5724     5723
     5850     7102
        1        1        1        1        0        0        0        0       10        0        5      975     1109     1199     1188     6430     7102     6435     6434
     7101     7269
        1        1        1        1        0        0        0        0       10        0        6      953     1199      975     1109     6304     6435     6300     6303
     7102     6430
        1        1        1        1        0        0        0        0       10        0        7      732     1199      764      953     5073     5298     5068     5072
     6304     5295
        1        1        1        1        0        0        0        0       10        0        8      975     1199     1009     1188     6435     6575     6424     6434
     7269     6574
        1        1        1        1        0        0        0        0       10        0        9      741      975     1199     1009     5141     6435     5143     5142
     6424     6575
        1        1        1        1        0        0        0        0       10        0       10      741      764     1199      975     5136     5298     5143     5141
     5296     6435
! ... 7891 like lines cut
!Material Id = {E30D07C2-3A54-46F0-AED9-F51946E9E18D}
/wb,elem,end               !  done creating elements
/com,*********** Send User Defined Coordinate System(s) ***********
csys,0
toffst,273.15,  ! Temperature offset from absolute zero
/com,*********** Set Reference Temperature ***********
tref,22.
/wb,mat,start              !  starting to send materials
/com,*********** Send Materials ***********
Temperature = 'TEMP' ! Temperature
MP,DENS,1,7.85e-09,	! tonne mm^-3
MP,ALPX,1,1.2e-05,	! C^-1
MP,C,1,434000000,	! mm^2 s^-2 C^-1
MP,KXX,1,60.5,	! tonne mm s^-3 C^-1
MP,RSVX,1,0.00017,	! ohm mm
MP,EX,1,200000,	! tonne s^-2 mm^-1
MP,NUXY,1,0.3,
MP,MURX,1,10000,
MP,UVID,1,1b96c9c2-4a4b-41c8-b0a8-fa754b09d44b
MP,UMID,1,59002a79-71c2-428e-906b-55d7dbee100e

/wb,mat,end                !  done sending materials
!************************* Model Summary ********************
!Geom\Volumenk_rper,	Baustahl,	matid,	1
!************************* End Model Summary ********************
! get the diagonal of the bounding box. Needed later for other things
*get,_xmin,node,,mnloc,x
*get,_ymin,node,,mnloc,y
*get,_zmin,node,,mnloc,z
*get,_xmax,node,,mxloc,x
*get,_ymax,node,,mxloc,y
*get,_zmax,node,,mxloc,z
_ASMDIAG=(_xmax-_xmin)*(_xmax-_xmin)+(_ymax-_ymin)*(_ymax-_ymin)+(_zmax-_zmin)*(_zmax-_zmin)
_ASMDIAG=SQRT(_ASMDIAG)
/wb,contact,start          !  starting to send contact
/wb,contact,end            !  done creating contacts
/golist
/wb,load,start             !  starting to send loads
/com,******* Constant Zero Displacement X *******
CMBLOCK,_DISPZEROUX,NODE,      637
(8i10)
        81       103       104       105       106       107       108       109
       110       111       112       113       114       115       116       117
       118       119       120       142       143       144       145       146
       147       148       149       150       151       152       153       154
       155       156       157       158       159       160       161       162
       163       164       165       166       167       168       169       170
       171       172       173       174       175       176       177       178
       179       180       181       182       183       184       185       186
       187       188       189       190       191       192       193       194
       195       196       197       198       199       200       201       202
       620       621       622       623       624       625       626       627
       628       629       630       631       632       633       634       635
       636       637       638       639       640       641       642       643
       644       645       646       647       648       649       650       651
       652       653       654       655       656       657       658       659
       660       661       662       663       664       665       666       667
       668       669       670       671       672       673       674       675
       676       677       678       679       680       681       682       683
       684       685       686       687       688       689       690       691
       692       693       694       695       696       697       698       699
! ... 60 like lines cut
cmsel,s,_DISPZEROUX
d,all,ux,0
nsel,all
/com,******* Constant Zero Displacement Y *******
CMBLOCK,_DISPZEROUY,NODE,      637
(8i10)
        81       103       104       105       106       107       108       109
       110       111       112       113       114       115       116       117
       118       119       120       142       143       144       145       146
       147       148       149       150       151       152       153       154
       155       156       157       158       159       160       161       162
       163       164       165       166       167       168       169       170
       171       172       173       174       175       176       177       178
       179       180       181       182       183       184       185       186
       187       188       189       190       191       192       193       194
       195       196       197       198       199       200       201       202
       620       621       622       623       624       625       626       627
       628       629       630       631       632       633       634       635
       636       637       638       639       640       641       642       643
       644       645       646       647       648       649       650       651
       652       653       654       655       656       657       658       659
       660       661       662       663       664       665       666       667
       668       669       670       671       672       673       674       675
       676       677       678       679       680       681       682       683
       684       685       686       687       688       689       690       691
       692       693       694       695       696       697       698       699
! ... 60 like lines cut
cmsel,s,_DISPZEROUY
d,all,uy,0
nsel,all
/com,******* Constant Zero Displacement Z *******
CMBLOCK,_DISPZEROUZ,NODE,      637
(8i10)
        81       103       104       105       106       107       108       109
       110       111       112       113       114       115       116       117
       118       119       120       142       143       144       145       146
       147       148       149       150       151       152       153       154
       155       156       157       158       159       160       161       162
       163       164       165       166       167       168       169       170
       171       172       173       174       175       176       177       178
       179       180       181       182       183       184       185       186
       187       188       189       190       191       192       193       194
       195       196       197       198       199       200       201       202
       620       621       622       623       624       625       626       627
       628       629       630       631       632       633       634       635
       636       637       638       639       640       641       642       643
       644       645       646       647       648       649       650       651
       652       653       654       655       656       657       658       659
       660       661       662       663       664       665       666       667
       668       669       670       671       672       673       674       675
       676       677       678       679       680       681       682       683
       684       685       686       687       688       689       690       691
       692       693       694       695       696       697       698       699
! ... 60 like lines cut
cmsel,s,_DISPZEROUZ
d,all,uz,0
nsel,all
/com,*********** Define Pressure Using Surface Effect Elements "Druck" ***********
et,2,154
eblock,10,,,278
(15i9)
     5790        2        2        2        0      823      847      904      904     5533     5741      904     5537
     5791        2        2        2        0      836      890      879      879     5651     5912      879     5649
     5792        2        2        2        0      829      914      877      877     5592     5905      877     5589
     5793        2        2        2        0      827      857      878      878     5569     5806      878     5572
     5794        2        2        2        0      822      878      857      857     5526     5806      857     5525
     5795        2        2        2        0      863      875      902      902     5836     5891      902     5839
     5796        2        2        2        0      824      848      830      830     5543     5597      830     5541
     5797        2        2        2        0      821      868      864      864     5514     5842      864     5513
     5798        2        2        2        0      844      884      865      865     5720     5846      865     5719
     5799        2        2        2        0      825      861      889      889     5552     5827      889     5554
     5800        2        2        2        0      831      871      888      888     5609     5876      888     5610
     5801        2        2        2        0      834      876      853      853     5636     5780      853     5635
     5802        2        2        2        0      873      893      907      907     5884     5960      907     5885
     5803        2        2        2        0      820      886      899      899     5507     5941      899     5508
     5804        2        2        2        0      820      899      853      853     5508     5781      853     5504
     5805        2        2        2        0      824      852      848      848     5544     5746      848     5543
     5806        2        2        2        0      870      883      891      891     5871     5929      891     5872
     5807        2        2        2        0      822      891      833      833     5527     5627      833     5523
     5808        2        2        2        0      839      855      907      907     5675     5796      907     5678
     5809        2        2        2        0      827      866      910      910     5571     5853      910     5573
! ... 259 like lines cut
esel,s,type,,2
keyop,2,7,0                ! Use deformed area for application of load
esel,all
esel,all
/gst,on,on
fini
*get,_numnode,node,0,count
*get,_numelem,elem,0,count
*get, _MAXELEMNUM, elem, 0, NUM, MAX
*get, _MAXNODENUM, node, 0, NUM, MAX
*get, _MAXELEMTYPE, etyp, 0, NUM, MAX
*get, _MAXREALCONST, rcon, 0, NUM, MAX
/go
/wb,load,end               !  done creating loads
/com,--- Number of total nodes = %_numnode%
/com,--- Number of contact elements = 278
/com,--- Number of spring elements = 0
/com,--- Number of bearing elements = 0
/com,--- Number of solid elements = 3955
/com,--- Number of condensed parts = 0
/com,--- Number of total elements = %_numelem%
*get,_wallbsol,active,,time,wall
/com,****************************************************************************
/com,*************************    SOLUTION       ********************************
/com,****************************************************************************
/solu
antype,0                   ! static analysis
_thickRatio=  1     ! Ratio of thick parts in the model
eqsl,pcg,1e-8,,,,,,1
cntr,print,1               ! print out contact info and also make no initial contact an error
dmpoption,emat,no             ! Don't combine emat file for DANSYS
dmpoption,esav,no             ! Don't combine esav file for DANSYS
nldiag,cont,iter           ! print out contact info each equilibrium iteration
rescontrol,,none                 ! Do not keep any restart files
/com,****************************************************
/com,******************* SOLVE FOR LS 1 OF 1 ****************
esel,s,type,,2
nsle
sf,all,pres,8.
nsel,all
esel,all
esel,all
/nopr
/gopr
nsub,1,1,1
time,1.
outres,erase
outres,all,none
outres,nsol,all,
outres,rsol,all
outres,eangl,all
outres,etmp,all
outres,veng,all
outres,strs,all,
outres,epel,all,
outres,eppl,all,
outres,cont,all,
! *********** WB SOLVE COMMAND ***********
! check interactive state
*get,ANSINTER_,active,,int
*if,ANSINTER_,ne,0,then
/eof
*endif
solve
/com *************** Write FE CONNECTORS ********* 
CEWRITE,file,ce,,INTE
/com,****************************************************
/com,*************** FINISHED SOLVE FOR LS 1 *************
*get,_wallasol,active,,time,wall
/nopr
*get,_numnode,node,0,count
*get,_numelem,elem,0,count
*get, _MAXELEMNUM, elem, 0, NUM, MAX
*get, _MAXNODENUM, node, 0, NUM, MAX,,,INTERNAL
*get, _MAXELEMTYPE, etyp, 0, NUM, MAX
*get, _MAXREALCONST, rcon, 0, NUM, MAX
*get,_NSOLTHREADS,active,0,ntfs
*get,_NSOLPROCESSES,active,0,npfs
/gopr
*get,_PCGITER,active,,solu,cgiter
/post1
xmlo,ENCODING,ISO-8859-1
xmlo,parm
/xml,parm,xml
fini
/gopr
*get,_walldone,active,,time,wall
_preptime=(_wallbsol-_wallstrt)*3600
_solvtime=(_wallasol-_wallbsol)*3600
_posttime=(_walldone-_wallasol)*3600
_totaltim=(_walldone-_wallstrt)*3600
*get,_dlbratio,active,0,solu,dlbr
*get,_combtime,active,0,solu,comb
*get,_ssmode,active,0,solu,ssmm
*get,_ndofs,active,0,solu,ndof
*get,_sol_end_time,active,0,set,time
*if,_sol_end_time,eq,1.000000,then
/fclean				!clean distributed files
*endif
/com,--- Total number of nodes = %_numnode%
/com,--- Total number of elements = %_numelem%
/com,--- Element load balance ratio = %_dlbratio%
/com,--- Time to combine distributed files = %_combtime%
/com,--- Sparse memory mode = %_ssmode%
/com,--- Number of DOF = %_ndofs%
/wb,file,end               ! done with WB generated input
