EXECUTION_CODE_ASTER_EXIT_23103-thomas-All-Series=127

 <I>_EXIT_CODE = 127