EXECUTION_CODE_ASTER_EXIT_23362-thomas-All-Series=127

 <I>_EXIT_CODE = 127